2658463932.fds
Generated by PyroSim 2024.2.1209
2026年6月19日 22:52:57

&HEAD CHID='2658463932'/
&TIME T_END=2000.0/
&DUMP DT_DEVC=1.0, DT_PL3D=2.0, DT_RESTART=300.0, DT_SLCF=1.0, DT_SL3D=2.0, WRITE_XYZ=.TRUE., PLOT3D_QUANTITY='VOLUME FRACTION','VOLUME FRACTION','VOLUME FRACTION','VISIBILITY','TEMPERATURE', PLOT3D_SPEC_ID(1:4)='CARBON DIOXIDE','CARBON MONOXIDE','OXYGEN','SOOT'/

&MESH ID='MESH-01', IJK=168,160,20, XB=266.0,308.0,61.0,101.0,-1.0,4.0/
&MESH ID='MESH-02', IJK=148,160,20, XB=308.0,345.0,61.0,101.0,-1.0,4.0/
&MESH ID='MESH-03', IJK=164,160,20, XB=345.0,386.0,61.0,101.0,-1.0,4.0/
&MESH ID='MESH-04', IJK=204,160,20, XB=386.0,437.0,61.0,101.0,-1.0,4.0/

&SPEC ID='COOKING_OIL_VAPOR', FORMULA='C57H104O6', SPECIFIC_HEAT=1.7/

&REAC ID='FDS6_COOKING_OIL_EQ',
      FYI='Cooking_oil',
      FUEL='COOKING_OIL_VAPOR',
      CO_YIELD=0.01,
      SOOT_YIELD=0.04,
      HEAT_OF_COMBUSTION=3.7E+4,
      RADIATIVE_FRACTION=0.35/

&DEVC ID='T-9', QUANTITY='TEMPERATURE', XYZ=375.355569,88.527773,1.7/
&DEVC ID='CO-9', QUANTITY='VOLUME FRACTION', SPEC_ID='CARBON MONOXIDE', XYZ=375.355569,88.527773,1.7/
&DEVC ID='CO2-9', QUANTITY='VOLUME FRACTION', SPEC_ID='CARBON DIOXIDE', XYZ=375.355569,88.527773,1.7/
&DEVC ID='O2-9', QUANTITY='VOLUME FRACTION', SPEC_ID='OXYGEN', XYZ=375.355569,88.527773,1.7/
&DEVC ID='V-9', QUANTITY='VISIBILITY', XYZ=375.355569,88.527773,1.7/
&DEVC ID='T-8', QUANTITY='TEMPERATURE', XYZ=355.145828,78.165284,1.7/
&DEVC ID='CO-8', QUANTITY='VOLUME FRACTION', SPEC_ID='CARBON MONOXIDE', XYZ=355.145828,78.165284,1.7/
&DEVC ID='CO2-8', QUANTITY='VOLUME FRACTION', SPEC_ID='CARBON DIOXIDE', XYZ=355.145828,78.165284,1.7/
&DEVC ID='O2-8', QUANTITY='VOLUME FRACTION', SPEC_ID='OXYGEN', XYZ=355.145828,78.165284,1.7/
&DEVC ID='V-8', QUANTITY='VISIBILITY', XYZ=355.145828,78.165284,1.7/
&DEVC ID='T-7', QUANTITY='TEMPERATURE', XYZ=353.621724,83.08931,1.7/
&DEVC ID='CO-7', QUANTITY='VOLUME FRACTION', SPEC_ID='CARBON MONOXIDE', XYZ=353.621724,83.08931,1.7/
&DEVC ID='CO2-7', QUANTITY='VOLUME FRACTION', SPEC_ID='CARBON DIOXIDE', XYZ=353.621724,83.08931,1.7/
&DEVC ID='O2-7', QUANTITY='VOLUME FRACTION', SPEC_ID='OXYGEN', XYZ=353.621724,83.08931,1.7/
&DEVC ID='V-7', QUANTITY='VISIBILITY', XYZ=353.621724,83.08931,1.7/
&DEVC ID='T-6', QUANTITY='TEMPERATURE', XYZ=340.55032,71.196849,1.7/
&DEVC ID='CO-6', QUANTITY='VOLUME FRACTION', SPEC_ID='CARBON MONOXIDE', XYZ=340.55032,71.196849,1.7/
&DEVC ID='CO2-6', QUANTITY='VOLUME FRACTION', SPEC_ID='CARBON DIOXIDE', XYZ=340.55032,71.196849,1.7/
&DEVC ID='O2-6', QUANTITY='VOLUME FRACTION', SPEC_ID='OXYGEN', XYZ=340.55032,71.196849,1.7/
&DEVC ID='V-6', QUANTITY='VISIBILITY', XYZ=340.55032,71.196849,1.7/
&DEVC ID='T-4', QUANTITY='TEMPERATURE', XYZ=311.524748,77.009451,1.7/
&DEVC ID='CO-4', QUANTITY='VOLUME FRACTION', SPEC_ID='CARBON MONOXIDE', XYZ=311.524748,77.009451,1.7/
&DEVC ID='CO2-4', QUANTITY='VOLUME FRACTION', SPEC_ID='CARBON DIOXIDE', XYZ=311.524748,77.009451,1.7/
&DEVC ID='O2-4', QUANTITY='VOLUME FRACTION', SPEC_ID='OXYGEN', XYZ=311.524748,77.009451,1.7/
&DEVC ID='V-4', QUANTITY='VISIBILITY', XYZ=311.524748,77.009451,1.7/
&DEVC ID='T-5', QUANTITY='TEMPERATURE', XYZ=340.477378,90.954679,1.7/
&DEVC ID='CO-5', QUANTITY='VOLUME FRACTION', SPEC_ID='CARBON MONOXIDE', XYZ=340.477378,90.954679,1.7/
&DEVC ID='CO2-5', QUANTITY='VOLUME FRACTION', SPEC_ID='CARBON DIOXIDE', XYZ=340.477378,90.954679,1.7/
&DEVC ID='O2-5', QUANTITY='VOLUME FRACTION', SPEC_ID='OXYGEN', XYZ=340.477378,90.954679,1.7/
&DEVC ID='V-5', QUANTITY='VISIBILITY', XYZ=340.477378,90.954679,1.7/
&DEVC ID='V-3', QUANTITY='VISIBILITY', XYZ=311.570531,84.863778,1.7/
&DEVC ID='O2-3', QUANTITY='VOLUME FRACTION', SPEC_ID='OXYGEN', XYZ=311.570531,84.863778,1.7/
&DEVC ID='CO2-3', QUANTITY='VOLUME FRACTION', SPEC_ID='CARBON DIOXIDE', XYZ=311.570531,84.863778,1.7/
&DEVC ID='CO-3', QUANTITY='VOLUME FRACTION', SPEC_ID='CARBON MONOXIDE', XYZ=311.570531,84.863778,1.7/
&DEVC ID='T-3', QUANTITY='TEMPERATURE', XYZ=311.570531,84.863778,1.7/
&DEVC ID='V-1', QUANTITY='VISIBILITY', XYZ=278.606452,79.807184,1.7/
&DEVC ID='O2-1', QUANTITY='VOLUME FRACTION', SPEC_ID='OXYGEN', XYZ=278.606452,79.807184,1.7/
&DEVC ID='CO2-1', QUANTITY='VOLUME FRACTION', SPEC_ID='CARBON DIOXIDE', XYZ=278.606452,79.807184,1.7/
&DEVC ID='CO-1', QUANTITY='VOLUME FRACTION', SPEC_ID='CARBON MONOXIDE', XYZ=278.606452,79.807184,1.7/
&DEVC ID='T-1', QUANTITY='TEMPERATURE', XYZ=278.606452,79.807184,1.7/
&DEVC ID='T-2', QUANTITY='TEMPERATURE', XYZ=288.455547,81.641176,1.7/
&DEVC ID='CO-2', QUANTITY='VOLUME FRACTION', SPEC_ID='CARBON MONOXIDE', XYZ=288.455547,81.641176,1.7/
&DEVC ID='CO2-2', QUANTITY='VOLUME FRACTION', SPEC_ID='CARBON DIOXIDE', XYZ=288.455547,81.641176,1.7/
&DEVC ID='O2-2', QUANTITY='VOLUME FRACTION', SPEC_ID='OXYGEN', XYZ=288.455547,81.641176,1.7/
&DEVC ID='V-2', QUANTITY='VISIBILITY', XYZ=288.455547,81.641176,1.7/
&DEVC ID='T-10', QUANTITY='TEMPERATURE', XYZ=391.649713,78.981037,1.7/
&DEVC ID='CO-10', QUANTITY='VOLUME FRACTION', SPEC_ID='CARBON MONOXIDE', XYZ=391.649713,78.981037,1.7/
&DEVC ID='CO2-10', QUANTITY='VOLUME FRACTION', SPEC_ID='CARBON DIOXIDE', XYZ=391.649713,78.981037,1.7/
&DEVC ID='O2-10', QUANTITY='VOLUME FRACTION', SPEC_ID='OXYGEN', XYZ=391.649713,78.981037,1.7/
&DEVC ID='V-10', QUANTITY='VISIBILITY', XYZ=391.649713,78.981037,1.7/
&DEVC ID='T-11', QUANTITY='TEMPERATURE', XYZ=407.813897,83.737988,1.7/
&DEVC ID='CO-11', QUANTITY='VOLUME FRACTION', SPEC_ID='CARBON MONOXIDE', XYZ=407.813897,83.737988,1.7/
&DEVC ID='CO2-11', QUANTITY='VOLUME FRACTION', SPEC_ID='CARBON DIOXIDE', XYZ=407.813897,83.737988,1.7/
&DEVC ID='O2-11', QUANTITY='VOLUME FRACTION', SPEC_ID='OXYGEN', XYZ=407.813897,83.737988,1.7/
&DEVC ID='V-11', QUANTITY='VISIBILITY', XYZ=407.813897,83.737988,1.7/
&DEVC ID='T-12', QUANTITY='TEMPERATURE', XYZ=413.174688,81.0193,1.7/
&DEVC ID='CO-12', QUANTITY='VOLUME FRACTION', SPEC_ID='CARBON MONOXIDE', XYZ=413.174688,81.0193,1.7/
&DEVC ID='CO2-12', QUANTITY='VOLUME FRACTION', SPEC_ID='CARBON DIOXIDE', XYZ=413.174688,81.0193,1.7/
&DEVC ID='O2-12', QUANTITY='VOLUME FRACTION', SPEC_ID='OXYGEN', XYZ=413.174688,81.0193,1.7/
&DEVC ID='V-12', QUANTITY='VISIBILITY', XYZ=413.174688,81.0193,1.7/
&DEVC ID='T-13', QUANTITY='TEMPERATURE', XYZ=427.335556,94.535697,1.7/
&DEVC ID='CO-13', QUANTITY='VOLUME FRACTION', SPEC_ID='CARBON MONOXIDE', XYZ=427.335556,94.535697,1.7/
&DEVC ID='CO2-13', QUANTITY='VOLUME FRACTION', SPEC_ID='CARBON DIOXIDE', XYZ=427.335556,94.535697,1.7/
&DEVC ID='O2-13', QUANTITY='VOLUME FRACTION', SPEC_ID='OXYGEN', XYZ=427.335556,94.535697,1.7/
&DEVC ID='V-13', QUANTITY='VISIBILITY', XYZ=427.335556,94.535697,1.7/
&DEVC ID='T-14', QUANTITY='TEMPERATURE', XYZ=427.295037,67.401521,1.7/
&DEVC ID='CO-14', QUANTITY='VOLUME FRACTION', SPEC_ID='CARBON MONOXIDE', XYZ=427.295037,67.401521,1.7/
&DEVC ID='CO2-14', QUANTITY='VOLUME FRACTION', SPEC_ID='CARBON DIOXIDE', XYZ=427.295037,67.401521,1.7/
&DEVC ID='O2-14', QUANTITY='VOLUME FRACTION', SPEC_ID='OXYGEN', XYZ=427.295037,67.401521,1.7/
&DEVC ID='V-14', QUANTITY='VISIBILITY', XYZ=427.295037,67.401521,1.7/
&DEVC ID='T-Galley', QUANTITY='TEMPERATURE', XYZ=403.5,71.0,1.7/
&DEVC ID='CO-Galley', QUANTITY='VOLUME FRACTION', SPEC_ID='CARBON MONOXIDE', XYZ=403.5,71.0,1.7/
&DEVC ID='CO2-Galley', QUANTITY='VOLUME FRACTION', SPEC_ID='CARBON DIOXIDE', XYZ=403.5,71.0,1.7/
&DEVC ID='O2-Galley', QUANTITY='VOLUME FRACTION', SPEC_ID='OXYGEN', XYZ=403.5,71.0,1.7/
&DEVC ID='V-Galley', QUANTITY='VISIBILITY', XYZ=403.5,71.0,1.7/
&DEVC ID='T-Cabin', QUANTITY='TEMPERATURE', XYZ=303.42,85.95,1.7/
&DEVC ID='CO-Cabin', QUANTITY='VOLUME FRACTION', SPEC_ID='CARBON MONOXIDE', XYZ=303.42,85.95,1.7/
&DEVC ID='CO2-Cabin', QUANTITY='VOLUME FRACTION', SPEC_ID='CARBON DIOXIDE', XYZ=303.42,85.95,1.7/
&DEVC ID='O2-Cabin', QUANTITY='VOLUME FRACTION', SPEC_ID='OXYGEN', XYZ=303.42,85.95,1.7/
&DEVC ID='V-Cabin', QUANTITY='VISIBILITY', XYZ=303.42,85.95,1.7/
&DEVC ID='T-01', QUANTITY='TEMPERATURE', XYZ=276.469821,88.630588,1.7/
&DEVC ID='CO-01', QUANTITY='VOLUME FRACTION', SPEC_ID='CARBON MONOXIDE', XYZ=276.469821,88.630588,1.7/
&DEVC ID='CO2-01', QUANTITY='VOLUME FRACTION', SPEC_ID='CARBON DIOXIDE', XYZ=276.469821,88.630588,1.7/
&DEVC ID='O2-01', QUANTITY='VOLUME FRACTION', SPEC_ID='OXYGEN', XYZ=276.469821,88.630588,1.7/
&DEVC ID='V-01', QUANTITY='VISIBILITY', XYZ=276.469821,88.630588,1.7/
&DEVC ID='T-02', QUANTITY='TEMPERATURE', XYZ=276.003431,73.647824,1.7/
&DEVC ID='CO-02', QUANTITY='VOLUME FRACTION', SPEC_ID='CARBON MONOXIDE', XYZ=276.003431,73.647824,1.7/
&DEVC ID='CO2-02', QUANTITY='VOLUME FRACTION', SPEC_ID='CARBON DIOXIDE', XYZ=276.003431,73.647824,1.7/
&DEVC ID='O2-02', QUANTITY='VOLUME FRACTION', SPEC_ID='OXYGEN', XYZ=276.003431,73.647824,1.7/
&DEVC ID='V-02', QUANTITY='VISIBILITY', XYZ=276.003431,73.647824,1.7/
&DEVC ID='T-03', QUANTITY='TEMPERATURE', XYZ=294.014252,90.143849,1.7/
&DEVC ID='CO-03', QUANTITY='VOLUME FRACTION', SPEC_ID='CARBON MONOXIDE', XYZ=294.014252,90.143849,1.7/
&DEVC ID='CO2-03', QUANTITY='VOLUME FRACTION', SPEC_ID='CARBON DIOXIDE', XYZ=294.014252,90.143849,1.7/
&DEVC ID='O2-03', QUANTITY='VOLUME FRACTION', SPEC_ID='OXYGEN', XYZ=294.014252,90.143849,1.7/
&DEVC ID='V-03', QUANTITY='VISIBILITY', XYZ=294.014252,90.143849,1.7/
&DEVC ID='T-04', QUANTITY='TEMPERATURE', XYZ=293.97955,72.301015,1.7/
&DEVC ID='CO-04', QUANTITY='VOLUME FRACTION', SPEC_ID='CARBON MONOXIDE', XYZ=293.97955,72.301015,1.7/
&DEVC ID='CO2-04', QUANTITY='VOLUME FRACTION', SPEC_ID='CARBON DIOXIDE', XYZ=293.97955,72.301015,1.7/
&DEVC ID='O2-04', QUANTITY='VOLUME FRACTION', SPEC_ID='OXYGEN', XYZ=293.97955,72.301015,1.7/
&DEVC ID='V-04', QUANTITY='VISIBILITY', XYZ=293.97955,72.301015,1.7/
&DEVC ID='T-05', QUANTITY='TEMPERATURE', XYZ=308.005792,90.126184,1.7/
&DEVC ID='CO-05', QUANTITY='VOLUME FRACTION', SPEC_ID='CARBON MONOXIDE', XYZ=308.005792,90.126184,1.7/
&DEVC ID='CO2-05', QUANTITY='VOLUME FRACTION', SPEC_ID='CARBON DIOXIDE', XYZ=308.005792,90.126184,1.7/
&DEVC ID='O2-05', QUANTITY='VOLUME FRACTION', SPEC_ID='OXYGEN', XYZ=308.005792,90.126184,1.7/
&DEVC ID='V-05', QUANTITY='VISIBILITY', XYZ=308.005792,90.126184,1.7/
&DEVC ID='T-06', QUANTITY='TEMPERATURE', XYZ=308.00034,72.153395,1.7/
&DEVC ID='CO-06', QUANTITY='VOLUME FRACTION', SPEC_ID='CARBON MONOXIDE', XYZ=308.00034,72.153395,1.7/
&DEVC ID='CO2-06', QUANTITY='VOLUME FRACTION', SPEC_ID='CARBON DIOXIDE', XYZ=308.00034,72.153395,1.7/
&DEVC ID='O2-06', QUANTITY='VOLUME FRACTION', SPEC_ID='OXYGEN', XYZ=308.00034,72.153395,1.7/
&DEVC ID='V-06', QUANTITY='VISIBILITY', XYZ=308.00034,72.153395,1.7/
&DEVC ID='T-07', QUANTITY='TEMPERATURE', XYZ=322.181696,90.210831,1.7/
&DEVC ID='CO-07', QUANTITY='VOLUME FRACTION', SPEC_ID='CARBON MONOXIDE', XYZ=322.181696,90.210831,1.7/
&DEVC ID='CO2-07', QUANTITY='VOLUME FRACTION', SPEC_ID='CARBON DIOXIDE', XYZ=322.181696,90.210831,1.7/
&DEVC ID='O2-07', QUANTITY='VOLUME FRACTION', SPEC_ID='OXYGEN', XYZ=322.181696,90.210831,1.7/
&DEVC ID='V-07', QUANTITY='TEMPERATURE', XYZ=322.181696,90.210831,1.7/
&DEVC ID='T-08', QUANTITY='TEMPERATURE', XYZ=320.54178,81.272003,1.7/
&DEVC ID='CO-08', QUANTITY='VOLUME FRACTION', SPEC_ID='CARBON MONOXIDE', XYZ=320.54178,81.272003,1.7/
&DEVC ID='CO2-08', QUANTITY='VOLUME FRACTION', SPEC_ID='CARBON DIOXIDE', XYZ=320.54178,81.272003,1.7/
&DEVC ID='O2-08', QUANTITY='VOLUME FRACTION', SPEC_ID='OXYGEN', XYZ=320.54178,81.272003,1.7/
&DEVC ID='V-08', QUANTITY='VISIBILITY', XYZ=320.54178,81.272003,1.7/
&DEVC ID='T-09', QUANTITY='TEMPERATURE', XYZ=322.829979,72.220368,1.7/
&DEVC ID='CO-09', QUANTITY='VOLUME FRACTION', SPEC_ID='CARBON MONOXIDE', XYZ=322.829979,72.220368,1.7/
&DEVC ID='CO2-09', QUANTITY='VOLUME FRACTION', SPEC_ID='CARBON DIOXIDE', XYZ=322.829979,72.220368,1.7/
&DEVC ID='O2-09', QUANTITY='VOLUME FRACTION', SPEC_ID='OXYGEN', XYZ=322.829979,72.220368,1.7/
&DEVC ID='V-09', QUANTITY='VISIBILITY', XYZ=322.829979,72.220368,1.7/
&DEVC ID='T-010', QUANTITY='TEMPERATURE', XYZ=345.008457,95.586332,1.7/
&DEVC ID='CO-010', QUANTITY='VOLUME FRACTION', SPEC_ID='CARBON MONOXIDE', XYZ=345.008457,95.586332,1.7/
&DEVC ID='CO2-010', QUANTITY='VOLUME FRACTION', SPEC_ID='CARBON DIOXIDE', XYZ=345.008457,95.586332,1.7/
&DEVC ID='O2-010', QUANTITY='VOLUME FRACTION', SPEC_ID='OXYGEN', XYZ=345.008457,95.586332,1.7/
&DEVC ID='V-010', QUANTITY='VISIBILITY', XYZ=345.008457,95.586332,1.7/
&DEVC ID='T-011', QUANTITY='TEMPERATURE', XYZ=345.003858,81.083287,1.7/
&DEVC ID='CO-011', QUANTITY='VOLUME FRACTION', SPEC_ID='CARBON MONOXIDE', XYZ=345.003858,81.083287,1.7/
&DEVC ID='CO2-011', QUANTITY='VOLUME FRACTION', SPEC_ID='CARBON DIOXIDE', XYZ=345.003858,81.083287,1.7/
&DEVC ID='O2-011', QUANTITY='VOLUME FRACTION', SPEC_ID='OXYGEN', XYZ=345.003858,81.083287,1.7/
&DEVC ID='V-011', QUANTITY='VISIBILITY', XYZ=345.003858,81.083287,1.7/
&DEVC ID='T-012', QUANTITY='TEMPERATURE', XYZ=344.996152,66.751697,1.7/
&DEVC ID='CO-012', QUANTITY='VOLUME FRACTION', SPEC_ID='CARBON MONOXIDE', XYZ=344.996152,66.751697,1.7/
&DEVC ID='CO2-012', QUANTITY='VOLUME FRACTION', SPEC_ID='CARBON DIOXIDE', XYZ=344.996152,66.751697,1.7/
&DEVC ID='O2-012', QUANTITY='VOLUME FRACTION', SPEC_ID='OXYGEN', XYZ=344.996152,66.751697,1.7/
&DEVC ID='V-012', QUANTITY='VISIBILITY', XYZ=344.996152,66.751697,1.7/
&DEVC ID='T-013', QUANTITY='TEMPERATURE', XYZ=366.022668,95.971396,1.7/
&DEVC ID='CO-013', QUANTITY='VOLUME FRACTION', SPEC_ID='CARBON MONOXIDE', XYZ=366.022668,95.971396,1.7/
&DEVC ID='CO2-013', QUANTITY='VOLUME FRACTION', SPEC_ID='CARBON DIOXIDE', XYZ=366.022668,95.971396,1.7/
&DEVC ID='O2-013', QUANTITY='VOLUME FRACTION', SPEC_ID='OXYGEN', XYZ=366.022668,95.971396,1.7/
&DEVC ID='V-013', QUANTITY='VISIBILITY', XYZ=366.022668,95.971396,1.7/
&DEVC ID='T-014', QUANTITY='TEMPERATURE', XYZ=365.209541,81.087682,1.7/
&DEVC ID='CO-014', QUANTITY='VOLUME FRACTION', SPEC_ID='CARBON MONOXIDE', XYZ=365.209541,81.087682,1.7/
&DEVC ID='CO2-014', QUANTITY='VOLUME FRACTION', SPEC_ID='CARBON DIOXIDE', XYZ=365.209541,81.087682,1.7/
&DEVC ID='O2-014', QUANTITY='VOLUME FRACTION', SPEC_ID='OXYGEN', XYZ=365.209541,81.087682,1.7/
&DEVC ID='V-014', QUANTITY='VISIBILITY', XYZ=365.209541,81.087682,1.7/
&DEVC ID='T-015', QUANTITY='TEMPERATURE', XYZ=366.583873,65.716589,1.7/
&DEVC ID='CO-015', QUANTITY='VOLUME FRACTION', SPEC_ID='CARBON MONOXIDE', XYZ=366.583873,65.716589,1.7/
&DEVC ID='CO2-015', QUANTITY='VOLUME FRACTION', SPEC_ID='CARBON DIOXIDE', XYZ=366.583873,65.716589,1.7/
&DEVC ID='O2-015', QUANTITY='VOLUME FRACTION', SPEC_ID='OXYGEN', XYZ=366.583873,65.716589,1.7/
&DEVC ID='V-015', QUANTITY='VISIBILITY', XYZ=366.583873,65.716589,1.7/
&DEVC ID='T-016', QUANTITY='TEMPERATURE', XYZ=381.793009,96.965053,1.7/
&DEVC ID='CO-016', QUANTITY='VOLUME FRACTION', SPEC_ID='CARBON MONOXIDE', XYZ=381.793009,96.965053,1.7/
&DEVC ID='CO2-016', QUANTITY='VOLUME FRACTION', SPEC_ID='CARBON DIOXIDE', XYZ=381.793009,96.965053,1.7/
&DEVC ID='O2-016', QUANTITY='VOLUME FRACTION', SPEC_ID='OXYGEN', XYZ=381.793009,96.965053,1.7/
&DEVC ID='V-016', QUANTITY='VISIBILITY', XYZ=381.793009,96.965053,1.7/
&DEVC ID='T-017', QUANTITY='TEMPERATURE', XYZ=380.2,65.575,1.7/
&DEVC ID='CO-017', QUANTITY='VOLUME FRACTION', SPEC_ID='CARBON MONOXIDE', XYZ=381.793009,96.965053,1.7/
&DEVC ID='CO2-017', QUANTITY='VOLUME FRACTION', SPEC_ID='CARBON DIOXIDE', XYZ=381.793009,96.965053,1.7/
&DEVC ID='O2-017', QUANTITY='VOLUME FRACTION', SPEC_ID='OXYGEN', XYZ=381.793009,96.965053,1.7/
&DEVC ID='V-017', QUANTITY='VISIBILITY', XYZ=381.793009,96.965053,1.7/
&DEVC ID='T-018', QUANTITY='TEMPERATURE', XYZ=408.556043,96.415855,1.7/
&DEVC ID='CO-018', QUANTITY='VOLUME FRACTION', SPEC_ID='CARBON MONOXIDE', XYZ=408.556043,96.415855,1.7/
&DEVC ID='CO2-018', QUANTITY='VOLUME FRACTION', SPEC_ID='CARBON DIOXIDE', XYZ=408.556043,96.415855,1.7/
&DEVC ID='O2-018', QUANTITY='VOLUME FRACTION', SPEC_ID='OXYGEN', XYZ=408.556043,96.415855,1.7/
&DEVC ID='V-018', QUANTITY='VISIBILITY', XYZ=408.556043,96.415855,1.7/
&DEVC ID='T-019', QUANTITY='TEMPERATURE', XYZ=408.85628,65.653901,1.7/
&DEVC ID='CO-019', QUANTITY='VOLUME FRACTION', SPEC_ID='CARBON MONOXIDE', XYZ=408.85628,65.653901,1.7/
&DEVC ID='CO2-019', QUANTITY='VOLUME FRACTION', SPEC_ID='CARBON DIOXIDE', XYZ=408.85628,65.653901,1.7/
&DEVC ID='O2-019', QUANTITY='VOLUME FRACTION', SPEC_ID='OXYGEN', XYZ=408.85628,65.653901,1.7/
&DEVC ID='V-019', QUANTITY='VISIBILITY', XYZ=408.85628,65.653901,1.7/

&MATL ID='FOAM',
      FYI='Caution: Reaction Rate Not Validated, remaining data from Jukka Hietaniemi, et al., "FDS simulation of fire spread..."',
      SPECIFIC_HEAT=1.7,
      CONDUCTIVITY=0.05,
      DENSITY=28.0,
      HEAT_OF_COMBUSTION=2.54E+4/

&SURF ID='SOFA',
      RGB=146,202,166,
      HRRPUA=0.0,
      TAU_Q=-1.0,
      IGNITION_TEMPERATURE=300.0,
      MATL_ID(1,1)='FOAM',
      MATL_MASS_FRACTION(1,1)=1.0,
      THICKNESS(1)=0.1/
&SURF ID='Galley_Fire_Source',
      COLOR='RED',
      HRRPUA=2000.0,
      TAU_Q=-150.0,
      TAU_T=-1.0,
      MASS_FRACTION=1.0,
      SPEC_ID='COOKING_OIL_VAPOR',
      TAU_MF=1.0/

&OBST ID='Obstruction', XB=337.056191,337.256191,63.533786,64.787749,0.0,2.75/ 
&OBST ID='Obstruction', XB=284.728317,284.928317,63.57994,71.467099,0.0,2.75/ 
&OBST ID='Obstruction', XB=290.606226,290.806226,63.539217,71.499718,0.0,2.75/ 
&OBST ID='Obstruction', XB=287.722287,287.922287,63.553554,69.572019,0.0,2.75/ 
&OBST ID='Obstruction', XB=316.694009,316.894009,63.567468,69.599076,0.0,2.75/ 
&OBST ID='Obstruction', XB=313.820643,314.020643,63.594709,71.523047,0.0,2.75/ 
&OBST ID='Obstruction', XB=310.915544,311.115544,63.574252,69.590914,0.0,2.75/ 
&OBST ID='Obstruction', XB=307.883424,308.083424,63.598694,71.515444,0.0,2.75/ 
&OBST ID='Obstruction', XB=304.936002,305.136002,63.579859,69.576563,0.0,2.75/ 
&OBST ID='Obstruction', XB=302.04147,302.24147,63.576519,71.49628,0.0,2.75/ 
&OBST ID='Obstruction', XB=299.168104,299.368104,63.605746,69.545424,0.0,2.75/ 
&OBST ID='Obstruction', XB=296.32651,296.52651,63.586819,71.495046,0.0,2.75/ 
&OBST ID='Obstruction', XB=293.479597,293.679597,63.588207,69.582157,0.0,2.75/ 
&OBST ID='Obstruction', XB=319.577948,319.777948,63.563672,71.536039,0.0,2.75/ 
&OBST ID='Obstruction', XB=322.451292,322.651292,63.564846,69.59897,0.0,2.75/ 
&OBST ID='Obstruction', XB=325.33523,325.53523,63.5651,71.534103,0.0,2.75/ 
&OBST ID='Obstruction', XB=328.213877,328.413877,63.603244,69.570789,0.0,2.75/ 
&OBST ID='Obstruction', XB=331.097816,331.297816,63.584058,71.552467,0.0,2.75/ 
&OBST ID='Obstruction', XB=333.971171,334.171171,63.576774,69.57201,0.0,2.75/ 
&OBST ID='Obstruction', XB=355.733758,358.317371,70.839196,71.039196,0.0,2.75/ 
! ... 90 like lines cut
&OBST ID='Obstruction', XB=311.72,312.52,95.7,96.0,0.0,0.75, BULK_DENSITY=30.0, SURF_ID='SOFA'/ 
&OBST ID='Obstruction', XB=320.42,321.22,95.7,96.0,0.0,0.75, BULK_DENSITY=30.0, SURF_ID='SOFA'/ 
&OBST ID='Obstruction', XB=335.02,335.82,95.7,96.0,0.0,0.75, BULK_DENSITY=30.0, SURF_ID='SOFA'/ 
&OBST ID='Obstruction', XB=308.82,309.62,95.7,96.0,0.0,0.75, BULK_DENSITY=30.0, SURF_ID='SOFA'/ 
&OBST ID='Obstruction', XB=308.62,308.82,93.9,96.0,0.0,0.75, BULK_DENSITY=30.0, SURF_ID='SOFA'/ 
&OBST ID='Obstruction', XB=308.82,309.62,94.2,95.7,0.0,0.25, BULK_DENSITY=30.0, SURF_ID='SOFA'/ 
&OBST ID='Obstruction', XB=308.82,309.62,93.9,94.2,0.0,0.75, BULK_DENSITY=30.0, SURF_ID='SOFA'/ 
&OBST ID='Obstruction', XB=311.52,311.72,93.9,96.0,0.0,0.75, BULK_DENSITY=30.0, SURF_ID='SOFA'/ 
&OBST ID='Obstruction', XB=303.02,303.82,95.7,96.0,0.0,0.75, BULK_DENSITY=30.0, SURF_ID='SOFA'/ 
&OBST ID='Obstruction', XB=302.82,303.02,93.9,96.0,0.0,0.75, BULK_DENSITY=30.0, SURF_ID='SOFA'/ 
&OBST ID='Obstruction', XB=303.02,303.82,94.2,95.7,0.0,0.25, BULK_DENSITY=30.0, SURF_ID='SOFA'/ 
&OBST ID='Obstruction', XB=305.92,306.72,95.7,96.0,0.0,0.75, BULK_DENSITY=30.0, SURF_ID='SOFA'/ 
&OBST ID='Obstruction', XB=305.72,305.92,93.9,96.0,0.0,0.75, BULK_DENSITY=30.0, SURF_ID='SOFA'/ 
&OBST ID='Obstruction', XB=305.92,306.72,94.2,95.7,0.0,0.25, BULK_DENSITY=30.0, SURF_ID='SOFA'/ 
&OBST ID='Obstruction', XB=305.92,306.72,93.9,94.2,0.0,0.75, BULK_DENSITY=30.0, SURF_ID='SOFA'/ 
&OBST ID='Obstruction', XB=335.02,335.82,94.2,95.7,0.0,0.25, BULK_DENSITY=30.0, SURF_ID='SOFA'/ 
&OBST ID='Obstruction', XB=335.02,335.82,93.9,94.2,0.0,0.75, BULK_DENSITY=30.0, SURF_ID='SOFA'/ 
&OBST ID='Obstruction', XB=288.32,288.52,93.9,96.0,0.0,0.75, BULK_DENSITY=30.0, SURF_ID='SOFA'/ 
&OBST ID='Obstruction', XB=288.52,289.32,95.7,96.0,0.0,0.75, BULK_DENSITY=30.0, SURF_ID='SOFA'/ 
&OBST ID='Obstruction', XB=323.32,324.12,95.7,96.0,0.0,0.75, BULK_DENSITY=30.0, SURF_ID='SOFA'/ 
! ... 252 like lines cut
&OBST ID='Obstruction', XB=403.0,404.0,70.0,72.0,0.0,0.5, REMOVABLE=.FALSE., SURF_IDS='Galley_Fire_Source','INERT','INERT'/ 
&OBST ID='Obstruction', XB=266.0,266.25,79.25,82.75,-0.25,2.75/ 
&OBST ID='Obstruction', XB=266.0,271.25,82.75,83.0,-0.25,0.0/ 
&OBST ID='Obstruction', XB=266.25,266.5,77.0,78.75,-0.25,2.75/ 
&OBST ID='Obstruction', XB=266.25,266.5,83.5,85.25,-0.25,2.75/ 
&OBST ID='Obstruction', XB=266.25,271.25,78.75,82.75,-0.25,0.0/ 
&OBST ID='Obstruction', XB=266.25,271.25,83.0,83.5,-0.25,0.0/ 
&OBST ID='Obstruction', XB=266.5,266.75,75.5,76.5,-0.25,2.75/ 
&OBST ID='Obstruction', XB=266.5,266.75,85.5,86.5,-0.25,2.75/ 
&OBST ID='Obstruction', XB=266.5,271.25,78.25,78.75,-0.25,0.0/ 
&OBST ID='Obstruction', XB=266.5,271.25,83.5,84.0,-0.25,0.0/ 
&OBST ID='Obstruction', XB=266.5,271.5,76.5,77.75,-0.25,0.0/ 
&OBST ID='Obstruction', XB=266.5,271.5,84.25,85.5,-0.25,0.0/ 
&OBST ID='Obstruction', XB=266.5,272.0,77.75,78.25,-0.25,0.0/ 
&OBST ID='Obstruction', XB=266.5,272.0,84.0,84.25,-0.25,0.0/ 
&OBST ID='Obstruction', XB=266.75,267.0,74.5,75.25,-0.25,2.75/ 
&OBST ID='Obstruction', XB=266.75,267.0,86.75,87.75,-0.25,2.75/ 
&OBST ID='Obstruction', XB=266.75,271.5,76.25,76.5,-0.25,0.0/ 
&OBST ID='Obstruction', XB=266.75,271.5,85.5,86.0,-0.25,0.0/ 
&OBST ID='Obstruction', XB=266.75,271.75,75.25,76.0,-0.25,0.0/ 
&OBST ID='Obstruction', XB=266.75,271.75,86.25,86.75,-0.25,0.0/ 
! ... 1883 like lines cut
&OBST ID='Obstruction', XB=266.0,308.0,79.25,83.0,2.75,3.0, COLOR='INVISIBLE'/ 
&OBST ID='Obstruction', XB=266.25,308.0,77.0,79.25,2.75,3.0, COLOR='INVISIBLE'/ 
&OBST ID='Obstruction', XB=266.25,308.0,83.0,85.25,2.75,3.0, COLOR='INVISIBLE'/ 
&OBST ID='Obstruction', XB=266.5,308.0,75.5,77.0,2.75,3.0, COLOR='INVISIBLE'/ 
&OBST ID='Obstruction', XB=266.5,308.0,85.25,86.5,2.75,3.0, COLOR='INVISIBLE'/ 
&OBST ID='Obstruction', XB=266.75,308.0,74.5,75.5,2.75,3.0, COLOR='INVISIBLE'/ 
&OBST ID='Obstruction', XB=266.75,308.0,86.5,87.75,2.75,3.0, COLOR='INVISIBLE'/ 
&OBST ID='Obstruction', XB=267.0,308.0,73.5,74.5,2.75,3.0, COLOR='INVISIBLE'/ 
&OBST ID='Obstruction', XB=267.0,308.0,87.75,88.5,2.75,3.0, COLOR='INVISIBLE'/ 
&OBST ID='Obstruction', XB=267.25,308.0,72.75,73.5,2.75,3.0, COLOR='INVISIBLE'/ 
&OBST ID='Obstruction', XB=267.25,308.0,88.5,89.5,2.75,3.0, COLOR='INVISIBLE'/ 
&OBST ID='Obstruction', XB=267.5,308.0,72.0,72.75,2.75,3.0, COLOR='INVISIBLE'/ 
&OBST ID='Obstruction', XB=267.5,308.0,89.5,90.0,2.75,3.0, COLOR='INVISIBLE'/ 
&OBST ID='Obstruction', XB=267.75,308.0,71.5,72.0,2.75,3.0, COLOR='INVISIBLE'/ 
&OBST ID='Obstruction', XB=267.75,308.0,90.0,90.75,2.75,3.0, COLOR='INVISIBLE'/ 
&OBST ID='Obstruction', XB=268.0,308.0,70.75,71.5,2.75,3.0, COLOR='INVISIBLE'/ 
&OBST ID='Obstruction', XB=268.0,308.0,90.75,91.25,2.75,3.0, COLOR='INVISIBLE'/ 
&OBST ID='Obstruction', XB=268.25,308.0,70.25,70.75,2.75,3.0, COLOR='INVISIBLE'/ 
&OBST ID='Obstruction', XB=268.25,308.0,91.25,91.75,2.75,3.0, COLOR='INVISIBLE'/ 
&OBST ID='Obstruction', XB=268.5,308.0,69.75,70.25,2.75,3.0, COLOR='INVISIBLE'/ 
! ... 117 like lines cut

&HOLE ID='Hole', XB=280.07198,280.32198,76.632449,77.410319,0.0,2.0/ 
&HOLE ID='Hole', XB=289.357422,290.017934,72.729559,72.979559,0.0,2.0/ 
&HOLE ID='Hole', XB=291.320596,291.982071,72.729559,72.979559,0.0,2.0/ 
&HOLE ID='Hole', XB=295.035357,295.691525,72.729559,72.979559,0.0,2.0/ 
&HOLE ID='Hole', XB=358.187853,358.437853,71.589526,72.573769,0.0,2.0/ 
&HOLE ID='Hole', XB=351.701518,352.521721,68.198758,68.448758,0.0,2.0/ 
&HOLE ID='Hole', XB=353.527131,354.347333,68.198758,68.448758,0.0,2.0/ 
&HOLE ID='Hole', XB=354.633076,355.633194,68.198758,68.448758,0.0,2.0/ 
&HOLE ID='Hole', XB=362.744452,363.744571,68.214841,68.464841,0.0,2.0/ 
&HOLE ID='Hole', XB=344.975,345.281981,72.292824,73.118807,0.0,2.0/ 
&HOLE ID='Hole', XB=331.801597,332.463056,71.399027,71.649027,0.0,2.0/ 
&HOLE ID='Hole', XB=329.811944,330.468112,71.399027,71.649027,0.0,2.0/ 
&HOLE ID='Hole', XB=326.044304,326.684596,71.384027,71.634027,0.0,2.0/ 
&HOLE ID='Hole', XB=324.04937,324.710818,71.384027,71.634027,0.0,2.0/ 
&HOLE ID='Hole', XB=320.287021,320.927303,71.384027,71.634027,0.0,2.0/ 
&HOLE ID='Hole', XB=318.29206,318.953519,71.384027,71.634027,0.0,2.0/ 
&HOLE ID='Hole', XB=314.529711,315.170004,71.384027,71.634027,0.0,2.0/ 
&HOLE ID='Hole', XB=312.534778,313.190945,71.384027,71.634027,0.0,2.0/ 
&HOLE ID='Hole', XB=335.569243,336.230697,71.399027,71.649027,0.0,2.0/ 
&HOLE ID='Hole', XB=331.880972,332.542436,72.524559,72.774559,0.0,2.0/ 
! ... 145 like lines cut

&VENT ID='Mesh Vent: MESH-01 [XMIN]', SURF_ID='OPEN', XB=266.0,266.0,61.0,101.0,-1.0,4.0/ 

&SLCF QUANTITY='VISIBILITY', ID='Visibility', PBZ=1.7/
&SLCF QUANTITY='TEMPERATURE', ID='Temperature', PBZ=1.7/
&SLCF QUANTITY='VOLUME FRACTION', SPEC_ID='CARBON MONOXIDE', ID='CO', PBZ=1.7/
&SLCF QUANTITY='VOLUME FRACTION', SPEC_ID='CARBON DIOXIDE', ID='CO2', PBZ=1.7/
&SLCF QUANTITY='VOLUME FRACTION', SPEC_ID='OXYGEN', ID='O2', PBZ=1.7/


&TAIL /
